@<TRIPOS>MOLECULE
examples/1bna.pdb
 566 545 0 0 0
SMALL
GASTEIGER

@<TRIPOS>ATOM
      1  O5'       18.9350   34.1950   25.6170 O.3     1  DC1        -0.2176
      2  C5'       19.1300   33.9210   24.2190 C.3     1  DC1         0.2140
      3  C4'       19.9610   32.6680   24.1000 C.3     1  DC1         0.1776
      4  O4'       19.3600   31.5830   24.8520 O.3     1  DC1        -0.3326
      5  C3'       20.1720   32.1220   22.6940 C.3     1  DC1         0.1559
      6  O3'       21.3500   31.3250   22.6810 O.3     1  DC1        -0.3138
      7  C2'       18.9480   31.2230   22.6470 C.3     1  DC1         0.0866
      8  C1'       19.2310   30.4820   23.9440 C.3     1  DC1         0.2106
      9  N1        18.0700   29.6610   24.3800 N.ar    1  DC1        -0.2556
     10  C2        18.2240   28.4540   25.0150 C.ar    1  DC1         0.3531
     11  O2        19.3600   28.0140   25.2140 O.2     1  DC1        -0.2443
     12  N3        17.1430   27.7610   25.3770 N.ar    1  DC1        -0.1739
     13  C4        15.9170   28.2260   25.1200 C.ar    1  DC1         0.1759
     14  N4        14.8280   27.4770   25.4440 N.pl3   1  DC1        -0.1070
     15  C5        15.7190   29.4420   24.4710 C.ar    1  DC1         0.0566
     16  C6        16.8430   30.1710   24.1010 C.ar    1  DC1         0.0849
     17  P         22.4090   31.2860   21.4830 P.3     2  DG2         0.2141
     18  OP1       23.5360   32.1570   21.8510 O.3     2  DG2        -0.4373
     19  OP2       21.8220   31.4590   20.1390 O.2     2  DG2        -0.5172
     20  O5'       22.8400   29.7510   21.4980 O.3     2  DG2        -0.3114
     21  C5'       23.5430   29.1750   22.5940 C.3     2  DG2         0.1811
     22  C4'       23.4940   27.7090   22.2790 C.3     2  DG2         0.1746
     23  O4'       22.1930   27.2520   22.6740 O.3     2  DG2        -0.3327
     24  C3'       23.6930   27.3250   20.8070 C.3     2  DG2         0.1558
     25  O3'       24.7230   26.3200   20.6530 O.3     2  DG2        -0.3138
     26  C2'       22.2730   26.8850   20.4160 C.3     2  DG2         0.0865
     27  C1'       21.7210   26.3040   21.7160 C.3     2  DG2         0.2094
     28  N9        20.2370   26.4700   21.7800 N.ar    2  DG2        -0.2713
     29  C8        19.5260   27.5840   21.4290 C.ar    2  DG2         0.1816
     30  N7        18.2070   27.4550   21.6360 N.ar    2  DG2        -0.2173
     31  C5        18.0830   26.2120   22.1420 C.ar    2  DG2         0.1748
     32  C6        16.9040   25.5250   22.5450 C.ar    2  DG2         0.3023
     33  O6        15.7390   25.9160   22.5180 O.2     2  DG2        -0.2633
     34  N1        17.1970   24.2790   23.0370 N.ar    2  DG2        -0.1709
     35  C2        18.4340   23.7170   23.1550 C.ar    2  DG2         0.2606
     36  N2        18.5080   22.4560   23.6680 N.pl3   2  DG2        -0.0859
     37  N3        19.5370   24.3600   22.7700 N.ar    2  DG2        -0.1918
     38  C4        19.2900   25.5940   22.2740 C.ar    2  DG2         0.1722
     39  P         25.0640   25.6210   19.2520 P.3     3  DC3         0.2141
     40  OP1       26.5060   25.3160   19.2200 O.3     3  DC3        -0.4373
     41  OP2       24.5590   26.4120   18.1150 O.2     3  DC3        -0.5172
     42  O5'       24.2600   24.2460   19.3270 O.3     3  DC3        -0.3114
     43  C5'       24.5840   23.2850   20.3350 C.3     3  DC3         0.1811
     44  C4'       23.5230   22.2330   20.2450 C.3     3  DC3         0.1746
     45  O4'       22.2560   22.8440   20.4530 O.3     3  DC3        -0.3327
     46  C3'       23.4240   21.5570   18.9030 C.3     3  DC3         0.1558
     47  O3'       24.1210   20.3090   18.9280 O.3     3  DC3        -0.3138
     48  C2'       21.9300   21.4060   18.6610 C.3     3  DC3         0.0866
     49  C1'       21.2780   21.9660   19.9090 C.3     3  DC3         0.2106
     50  N1        20.1960   22.8890   19.5210 N.ar    3  DC3        -0.2556
     51  C2        18.9090   22.5840   19.8160 C.ar    3  DC3         0.3531
     52  O2        18.6850   21.5120   20.3820 O.2     3  DC3        -0.2443
     53  N3        17.9350   23.4470   19.5020 N.ar    3  DC3        -0.1739
     54  C4        18.2170   24.6030   18.8970 C.ar    3  DC3         0.1759
     55  N4        17.2210   25.4990   18.6290 N.pl3   3  DC3        -0.1070
     56  C5        19.5260   24.9450   18.5710 C.ar    3  DC3         0.0566
     57  C6        20.5370   24.0480   18.8990 C.ar    3  DC3         0.0849
     58  P         24.2490   19.4120   17.6170 P.3     4  DG4         0.2141
     59  OP1       25.4200   18.5350   17.7650 O.3     4  DG4        -0.4373
     60  OP2       24.2080   20.2960   16.4400 O.2     4  DG4        -0.5172
     61  O5'       22.9310   18.5370   17.6700 O.3     4  DG4        -0.3114
     62  C5'       22.7140   17.6250   18.7530 C.3     4  DG4         0.1811
     63  C4'       21.3930   16.9600   18.5050 C.3     4  DG4         0.1746
     64  O4'       20.3530   17.9520   18.4960 O.3     4  DG4        -0.3327
     65  C3'       21.2640   16.2290   17.1760 C.3     4  DG4         0.1558
     66  O3'       20.2840   15.2140   17.2380 O.3     4  DG4        -0.3138
     67  C2'       20.7930   17.3680   16.2880 C.3     4  DG4         0.0865
     68  C1'       19.7160   17.9010   17.2180 C.3     4  DG4         0.2094
     69  N9        19.3050   19.2810   16.8690 N.ar    4  DG4        -0.2713
     70  C8        20.0170   20.2630   16.2320 C.ar    4  DG4         0.1816
     71  N7        19.3130   21.3940   16.0770 N.ar    4  DG4        -0.2173
     72  C5        18.1210   21.1000   16.6350 C.ar    4  DG4         0.1748
     73  C6        16.9520   21.9040   16.7490 C.ar    4  DG4         0.3023
     74  O6        16.7690   23.0570   16.3680 O.2     4  DG4        -0.2633
     75  N1        15.9330   21.2140   17.3520 N.ar    4  DG4        -0.1709
     76  C2        15.9720   19.9300   17.8160 C.ar    4  DG4         0.2606
     77  N2        14.8310   19.4160   18.3530 N.pl3   4  DG4        -0.0859
     78  N3        17.0680   19.1790   17.7170 N.ar    4  DG4        -0.1918
     79  C4        18.0840   19.8250   17.1210 C.ar    4  DG4         0.1722
     80  P         20.3560   13.9690   16.2450 P.3     5  DA5         0.2141
     81  OP1       21.1160   12.8910   16.8920 O.3     5  DA5        -0.4373
     82  OP2       20.8370   14.4230   14.9100 O.2     5  DA5        -0.5172
     83  O5'       18.8100   13.5810   16.1610 O.3     5  DA5        -0.3114
     84  C5'       18.0150   13.5690   17.3620 C.3     5  DA5         0.1811
     85  C4'       16.6720   14.0880   16.9570 C.3     5  DA5         0.1746
     86  O4'       16.8420   15.4470   16.5610 O.3     5  DA5        -0.3327
     87  C3'       16.0190   13.3930   15.7640 C.3     5  DA5         0.1558
     88  O3'       14.7620   12.7960   16.1200 O.3     5  DA5        -0.3138
     89  C2'       15.9520   14.4980   14.6960 C.3     5  DA5         0.0865
     90  C1'       15.8510   15.7320   15.5690 C.3     5  DA5         0.2094
     91  N9        16.3910   16.9160   14.8670 N.ar    5  DA5        -0.2714
     92  C8        17.6580   17.1030   14.3820 C.ar    5  DA5         0.1815
     93  N7        17.8630   18.3460   13.9130 N.ar    5  DA5        -0.2193
     94  C5        16.6730   18.9530   14.0980 C.ar    5  DA5         0.1518
     95  C6        16.2300   20.2790   13.8190 C.ar    5  DA5         0.1919
     96  N6        17.0450   21.2220   13.2680 N.pl3   5  DA5        -0.1054
     97  N1        14.9660   20.5780   14.1180 N.ar    5  DA5        -0.2040
     98  C2        14.1780   19.6520   14.6690 C.ar    5  DA5         0.2016
     99  N3        14.4630   18.3920   14.9840 N.ar    5  DA5        -0.2048
    100  C4        15.7500   18.1100   14.6610 C.ar    5  DA5         0.1691
    101  P         13.8660   12.0060   15.0630 P.3     6  DA6         0.2141
    102  OP1       13.0280   11.0390   15.8000 O.3     6  DA6        -0.4373
    103  OP2       14.7150   11.4990   13.9680 O.2     6  DA6        -0.5172
    104  O5'       12.8790   13.1110   14.4800 O.3     6  DA6        -0.3114
    105  C5'       11.8020   13.5970   15.2900 C.3     6  DA6         0.1811
    106  C4'       11.1110   14.6030   14.4350 C.3     6  DA6         0.1746
    107  O4'       12.1520   15.4600   13.9620 O.3     6  DA6        -0.3327
    108  C3'       10.4170   14.0700   13.1870 C.3     6  DA6         0.1558
    109  O3'        9.0070   14.3690   13.1810 O.3     6  DA6        -0.3138
    110  C2'       11.2400   14.6920   12.0610 C.3     6  DA6         0.0865
    111  C1'       11.6990   15.9740   12.7190 C.3     6  DA6         0.2094
    112  N9        12.9180   16.5260   12.0780 N.ar    6  DA6        -0.2714
    113  C8        14.1150   15.8990   11.8680 C.ar    6  DA6         0.1815
    114  N7        15.0490   16.7140   11.3560 N.ar    6  DA6        -0.2193
    115  C5        14.4160   17.9010   11.2460 C.ar    6  DA6         0.1518
    116  C6        14.8730   19.1870   10.8150 C.ar    6  DA6         0.1919
    117  N6        16.1610   19.4180   10.4270 N.pl3   6  DA6        -0.1054
    118  N1        13.9990   20.1910   10.8520 N.ar    6  DA6        -0.2040
    119  C2        12.7530   19.9620   11.2720 C.ar    6  DA6         0.2016
    120  N3        12.2100   18.8240   11.6980 N.ar    6  DA6        -0.2048
    121  C4        13.1160   17.8230   11.6570 C.ar    6  DA6         0.1691
    122  P          8.0810   14.0500   11.9150 P.3     7  DT7         0.2141
    123  OP1        6.6680   13.9600   12.3420 O.3     7  DT7        -0.4373
    124  OP2        8.6000   12.8940   11.1370 O.2     7  DT7        -0.5172
    125  O5'        8.2390   15.3870   11.0760 O.3     7  DT7        -0.3114
    126  C5'        7.9070   16.6350   11.6860 C.3     7  DT7         0.1811
    127  C4'        8.1620   17.6280   10.5980 C.3     7  DT7         0.1746
    128  O4'        9.5430   17.5800   10.2790 O.3     7  DT7        -0.3327
    129  C3'        7.4610   17.2840    9.2960 C.3     7  DT7         0.1558
    130  O3'        6.2510   18.0340    9.1620 O.3     7  DT7        -0.3138
    131  C2'        8.5320   17.5270    8.2230 C.3     7  DT7         0.0866
    132  C1'        9.6440   18.2090    9.0190 C.3     7  DT7         0.2106
    133  N1        11.0210   17.9030    8.5650 N.ar    7  DT7        -0.2559
    134  C2        11.8220   18.9230    8.1760 C.ar    7  DT7         0.3545
    135  O2        11.3830   20.0770    8.1430 O.2     7  DT7        -0.2443
    136  N3        13.1190   18.6410    7.8520 N.ar    7  DT7        -0.1533
    137  C4        13.6330   17.3720    7.8820 C.ar    7  DT7         0.2804
    138  O4        14.8300   17.2220    7.6190 O.2     7  DT7        -0.2654
    139  C5        12.7810   16.3250    8.2350 C.ar    7  DT7         0.0534
    140  C7        13.2690   14.9020    8.2360 C.3     7  DT7         0.0377
    141  C6        11.4650   16.6160    8.5940 C.ar    7  DT7         0.0824
    142  P          5.3840   17.9900    7.8240 P.3     8  DT8         0.2141
    143  OP1        4.0250   18.4440    8.1800 O.3     8  DT8        -0.4373
    144  OP2        5.4580   16.6680    7.1600 O.2     8  DT8        -0.5172
    145  O5'        6.0860   19.1180    6.9270 O.3     8  DT8        -0.3114
    146  C5'        6.1460   20.4780    7.4180 C.3     8  DT8         0.1811
    147  C4'        6.9950   21.2290    6.4380 C.3     8  DT8         0.1746
    148  O4'        8.1880   20.4580    6.2840 O.3     8  DT8        -0.3327
    149  C3'        6.4180   21.3320    5.0290 C.3     8  DT8         0.1558
    150  O3'        5.9670   22.6670    4.6960 O.3     8  DT8        -0.3138
    151  C2'        7.5130   20.7180    4.1390 C.3     8  DT8         0.0866
    152  C1'        8.7360   20.8550    5.0340 C.3     8  DT8         0.2106
    153  N1         9.8230   19.8760    4.7590 N.ar    8  DT8        -0.2559
    154  C2        11.0860   20.3160    4.4940 C.ar    8  DT8         0.3545
    155  O2        11.3240   21.5160    4.3890 O.2     8  DT8        -0.2443
    156  N3        12.0940   19.4030    4.4120 N.ar    8  DT8        -0.1533
    157  C4        11.8760   18.0600    4.5510 C.ar    8  DT8         0.2804
    158  O4        12.8580   17.3170    4.5030 O.2     8  DT8        -0.2654
    159  C5        10.5690   17.6110    4.7650 C.ar    8  DT8         0.0534
    160  C7        10.2610   16.1400    4.8960 C.3     8  DT8         0.0377
    161  C6         9.5450   18.5480    4.9040 C.ar    8  DT8         0.0824
    162  P          5.5310   23.0710    3.2090 P.3     9  DC9         0.2141
    163  OP1        4.6480   24.2440    3.2690 O.3     9  DC9        -0.4373
    164  OP2        5.0100   21.9050    2.4700 O.2     9  DC9        -0.5172
    165  O5'        6.9260   23.5470    2.6110 O.3     9  DC9        -0.3114
    166  C5'        7.6360   24.6270    3.2490 C.3     9  DC9         0.1811
    167  C4'        8.8970   24.8530    2.4570 C.3     9  DC9         0.1746
    168  O4'        9.6380   23.6270    2.4480 O.3     9  DC9        -0.3327
    169  C3'        8.7170   25.2400    0.9980 C.3     9  DC9         0.1558
    170  O3'        9.4700   26.4140    0.6670 O.3     9  DC9        -0.3138
    171  C2'        9.1260   23.9650    0.2530 C.3     9  DC9         0.0866
    172  C1'       10.2410   23.4830    1.1570 C.3     9  DC9         0.2106
    173  N1        10.5240   22.0220    1.0150 N.ar    9  DC9        -0.2556
    174  C2        11.8140   21.6030    0.8400 C.ar    9  DC9         0.3531
    175  O2        12.6910   22.4470    0.6700 O.2     9  DC9        -0.2443
    176  N3        12.1060   20.2970    0.8730 N.ar    9  DC9        -0.1739
    177  C4        11.1410   19.3950    1.0460 C.ar    9  DC9         0.1759
    178  N4        11.4610   18.0750    1.0890 N.pl3   9  DC9        -0.1070
    179  C5         9.8030   19.7750    1.1770 C.ar    9  DC9         0.0566
    180  C6         9.4990   21.1330    1.1670 C.ar    9  DC9         0.0849
    181  P          9.0550   27.3330   -0.5810 P.3    10  DG10        0.2141
    182  OP1        9.4960   28.7170   -0.2580 O.3    10  DG10       -0.4373
    183  OP2        7.6320   27.1060   -0.9470 O.2    10  DG10       -0.5172
    184  O5'        9.9540   26.7650   -1.7710 O.3    10  DG10       -0.3114
    185  C5'       11.3820   26.9400   -1.7200 C.3    10  DG10        0.1811
    186  C4'       11.9720   26.0900   -2.8020 C.3    10  DG10        0.1746
    187  O4'       11.8020   24.7240   -2.4040 O.3    10  DG10       -0.3327
    188  C3'       11.3270   26.1780   -4.1880 C.3    10  DG10        0.1558
    189  O3'       12.3110   26.0960   -5.2140 O.3    10  DG10       -0.3138
    190  C2'       10.4140   24.9620   -4.1860 C.3    10  DG10        0.0865
    191  C1'       11.4290   24.0280   -3.5870 C.3    10  DG10        0.2094
    192  N9        10.8900   22.7130   -3.2000 N.ar   10  DG10       -0.2713
    193  C8         9.6160   22.3150   -2.9100 C.ar   10  DG10        0.1816
    194  N7         9.5410   21.0090   -2.6130 N.ar   10  DG10       -0.2173
    195  C5        10.8180   20.5880   -2.7180 C.ar   10  DG10        0.1748
    196  C6        11.3760   19.2920   -2.5110 C.ar   10  DG10        0.3023
    197  O6        10.8130   18.2520   -2.1790 O.2    10  DG10       -0.2633
    198  N1        12.7290   19.2990   -2.7200 N.ar   10  DG10       -0.1709
    199  C2        13.4980   20.3650   -3.0820 C.ar   10  DG10        0.2606
    200  N2        14.8340   20.1690   -3.2370 N.pl3  10  DG10       -0.0859
    201  N3        12.9820   21.5730   -3.2670 N.ar   10  DG10       -0.1918
    202  C4        11.6560   21.6010   -3.0610 C.ar   10  DG10        0.1722
    203  P         12.7630   27.4210   -5.9800 P.3    11  DC11        0.2141
    204  OP1       12.7960   28.5720   -5.0490 O.3    11  DC11       -0.4373
    205  OP2       11.8860   27.5420   -7.1640 O.2    11  DC11       -0.5172
    206  O5'       14.2720   27.0860   -6.3660 O.3    11  DC11       -0.3114
    207  C5'       15.2750   27.1080   -5.3180 C.3    11  DC11        0.1811
    208  C4'       16.2220   25.9460   -5.5100 C.3    11  DC11        0.1746
    209  O4'       15.4430   24.7540   -5.3970 O.3    11  DC11       -0.3327
    210  C3'       16.9420   25.8270   -6.8480 C.3    11  DC11        0.1558
    211  O3'       18.3400   25.5110   -6.7010 O.3    11  DC11       -0.3138
    212  C2'       16.1180   24.7670   -7.5780 C.3    11  DC11        0.0866
    213  C1'       15.8560   23.8360   -6.4140 C.3    11  DC11        0.2106
    214  N1        14.6720   22.9750   -6.6370 N.ar   11  DC11       -0.2556
    215  C2        14.8020   21.6280   -6.5290 C.ar   11  DC11        0.3531
    216  O2        15.9240   21.1780   -6.3140 O.2    11  DC11       -0.2443
    217  N3        13.7230   20.8420   -6.6270 N.ar   11  DC11       -0.1739
    218  C4        12.5150   21.3730   -6.8360 C.ar   11  DC11        0.1759
    219  N4        11.4100   20.5740   -6.8720 N.pl3  11  DC11       -0.1070
    220  C5        12.3480   22.7440   -6.9780 C.ar   11  DC11        0.0566
    221  C6        13.4700   23.5580   -6.8690 C.ar   11  DC11        0.0849
    222  P         19.3310   25.7740   -7.9250 P.3    12  DG12        0.2141
    223  OP1       20.7040   25.9760   -7.4080 O.3    12  DG12       -0.4373
    224  OP2       18.7630   26.8510   -8.7580 O.2    12  DG12       -0.5172
    225  O5'       19.3020   24.4120   -8.7630 O.3    12  DG12       -0.3114
    226  C5'       20.1090   23.2840   -8.3590 C.3    12  DG12        0.1812
    227  C4'       19.7480   22.1670   -9.2990 C.3    12  DG12        0.1775
    228  O4'       18.3500   21.9690   -9.1390 O.3    12  DG12       -0.3326
    229  C3'       19.9210   22.4040  -10.8150 C.3    12  DG12        0.1859
    230  O3'       20.9850   21.6350  -11.4010 O.3    12  DG12       -0.2203
    231  C2'       18.5350   22.0620  -11.3810 C.3    12  DG12        0.0894
    232  C1'       17.9650   21.2000  -10.2690 C.3    12  DG12        0.2095
    233  N9        16.4930   21.2200  -10.2650 N.ar   12  DG12       -0.2713
    234  C8        15.6630   22.2890  -10.4780 C.ar   12  DG12        0.1816
    235  N7        14.3680   21.9580  -10.3900 N.ar   12  DG12       -0.2173
    236  C5        14.3880   20.6400  -10.1020 C.ar   12  DG12        0.1748
    237  C6        13.3010   19.7420   -9.8560 C.ar   12  DG12        0.3023
    238  O6        12.0910   19.9670   -9.8570 O.2    12  DG12       -0.2633
    239  N1        13.7500   18.4660   -9.6250 N.ar   12  DG12       -0.1709
    240  C2        15.0420   18.0430   -9.6050 C.ar   12  DG12        0.2606
    241  N2        15.2590   16.7170   -9.4060 N.pl3  12  DG12       -0.0859
    242  N3        16.0610   18.8850   -9.7920 N.ar   12  DG12       -0.1918
    243  C4        15.6600   20.1560  -10.0270 C.ar   12  DG12        0.1722
    244  O5'        7.4580   11.8840   -9.0700 O.3    13  DC13       -0.2176
    245  C5'        8.2520   10.9680   -9.8540 C.3    13  DC13        0.2140
    246  C4'        9.7140   11.1410   -9.5120 C.3    13  DC13        0.1776
    247  O4'       10.1440   12.4550   -9.9080 O.3    13  DC13       -0.3326
    248  C3'       10.1030   10.9890   -8.0550 C.3    13  DC13        0.1559
    249  O3'       11.2930   10.2210   -7.9040 O.3    13  DC13       -0.3138
    250  C2'       10.2540   12.4370   -7.6070 C.3    13  DC13        0.0866
    251  C1'       10.8960   13.0440   -8.8370 C.3    13  DC13        0.2106
    252  N1        10.5750   14.4870   -8.9440 N.ar   13  DC13       -0.2556
    253  C2        11.5590   15.4300   -9.0060 C.ar   13  DC13        0.3531
    254  O2        12.7250   15.0660   -8.9320 O.2    13  DC13       -0.2443
    255  N3        11.2460   16.7140   -9.1930 N.ar   13  DC13       -0.1739
    256  C4         9.9800   17.0880   -9.3340 C.ar   13  DC13        0.1759
    257  N4         9.6980   18.3950   -9.5890 N.pl3  13  DC13       -0.1070
    258  C5         8.9390   16.1620   -9.2740 C.ar   13  DC13        0.0566
    259  C6         9.2650   14.8240   -9.0800 C.ar   13  DC13        0.0849
    260  P         11.6020    9.5100   -6.5020 P.3    14  DG14        0.2141
    261  OP1       11.6660    8.0320   -6.6640 O.2    14  DG14       -0.5172
    262  OP2       10.6440   10.0100   -5.4940 O.3    14  DG14       -0.4373
    263  O5'       13.0510   10.0940   -6.1770 O.3    14  DG14       -0.3114
    264  C5'       14.1000   10.0210   -7.1560 C.3    14  DG14        0.1811
    265  C4'       15.1130   10.9920   -6.6570 C.3    14  DG14        0.1746
    266  O4'       14.5560   12.3000   -6.7550 O.3    14  DG14       -0.3327
    267  C3'       15.4450   10.8060   -5.1890 C.3    14  DG14        0.1558
    268  O3'       16.8360   10.5600   -5.0130 O.3    14  DG14       -0.3138
    269  C2'       14.9370   12.1000   -4.5290 C.3    14  DG14        0.0865
    270  C1'       15.0580   13.0860   -5.6710 C.3    14  DG14        0.2094
    271  N9        14.0360   14.1400   -5.5360 N.ar   14  DG14       -0.2713
    272  C8        12.7100   13.9570   -5.2590 C.ar   14  DG14        0.1816
    273  N7        12.0160   15.1030   -5.2690 N.ar   14  DG14       -0.2173
    274  C5        12.9370   16.0410   -5.5580 C.ar   14  DG14        0.1748
    275  C6        12.7610   17.4510   -5.7100 C.ar   14  DG14        0.3023
    276  O6        11.7230   18.1110   -5.6300 O.2    14  DG14       -0.2633
    277  N1        13.9520   18.0790   -5.9730 N.ar   14  DG14       -0.1709
    278  C2        15.1710   17.4850   -6.1070 C.ar   14  DG14        0.2606
    279  N2        16.2440   18.2920   -6.3250 N.pl3  14  DG14       -0.0859
    280  N3        15.3290   16.1610   -5.9860 N.ar   14  DG14       -0.1918
    281  C4        14.1790   15.4990   -5.7210 C.ar   14  DG14        0.1722
    282  P         17.4780   10.3800   -3.5690 P.3    15  DC15        0.2141
    283  OP1       18.6650    9.5160   -3.7290 O.2    15  DC15       -0.5172
    284  OP2       16.4270    9.9400   -2.6330 O.3    15  DC15       -0.4373
    285  O5'       17.9570   11.8650   -3.2080 O.3    15  DC15       -0.3114
    286  C5'       18.9630   12.5310   -3.9960 C.3    15  DC15        0.1811
    287  C4'       18.9360   13.9580   -3.5360 C.3    15  DC15        0.1746
    288  O4'       17.5920   14.4090   -3.6220 O.3    15  DC15       -0.3327
    289  C3'       19.2530   14.1390   -2.0660 C.3    15  DC15        0.1558
    290  O3'       20.6590   14.2190   -1.8580 O.3    15  DC15       -0.3138
    291  C2'       18.5200   15.4170   -1.7280 C.3    15  DC15        0.0866
    292  C1'       17.5450   15.6020   -2.8720 C.3    15  DC15        0.2106
    293  N1        16.1450   15.6960   -2.4280 N.ar   15  DC15       -0.2556
    294  C2        15.5070   16.8860   -2.5580 C.ar   15  DC15        0.3531
    295  O2        16.1620   17.8460   -2.9570 O.2    15  DC15       -0.2443
    296  N3        14.2090   16.9830   -2.2640 N.ar   15  DC15       -0.1739
    297  C4        13.5360   15.9190   -1.8250 C.ar   15  DC15        0.1759
    298  N4        12.2050   16.0170   -1.5530 N.pl3  15  DC15       -0.1070
    299  C5        14.1640   14.6890   -1.6520 C.ar   15  DC15        0.0566
    300  C6        15.5090   14.5840   -1.9790 C.ar   15  DC15        0.0849
    301  P         21.3040   14.5290   -0.4360 P.3    16  DG16        0.2141
    302  OP1       22.6960   14.0870   -0.5240 O.2    16  DG16       -0.5172
    303  OP2       20.4880   13.9540    0.6500 O.3    16  DG16       -0.4373
    304  O5'       21.3060   16.1170   -0.3630 O.3    16  DG16       -0.3114
    305  C5'       22.1770   16.8760   -1.2120 C.3    16  DG16        0.1811
    306  C4'       21.7390   18.2920   -1.0210 C.3    16  DG16        0.1746
    307  O4'       20.3050   18.2250   -1.0480 O.3    16  DG16       -0.3327
    308  C3'       22.1010   18.9590    0.2930 C.3    16  DG16        0.1558
    309  O3'       22.5920   20.2930    0.0970 O.3    16  DG16       -0.3138
    310  C2'       20.8200   18.8290    1.1210 C.3    16  DG16        0.0865
    311  C1'       19.7650   18.9850    0.0460 C.3    16  DG16        0.2094
    312  N9        18.5130   18.2990    0.4680 N.ar   16  DG16       -0.2713
    313  C8        18.3630   17.0620    1.0390 C.ar   16  DG16        0.1816
    314  N7        17.0800   16.7440    1.2810 N.ar   16  DG16       -0.2173
    315  C5        16.4000   17.8320    0.8680 C.ar   16  DG16        0.1748
    316  C6        14.9960   18.0900    0.8820 C.ar   16  DG16        0.3023
    317  O6        14.0820   17.3780    1.2800 O.2    16  DG16       -0.2633
    318  N1        14.7120   19.3490    0.4180 N.ar   16  DG16       -0.1709
    319  C2        15.6060   20.2680   -0.0270 C.ar   16  DG16        0.2606
    320  N2        15.1340   21.4930   -0.3820 N.pl3  16  DG16       -0.0859
    321  N3        16.9120   20.0170   -0.0720 N.ar   16  DG16       -0.1918
    322  C4        17.2360   18.7940    0.3840 C.ar   16  DG16        0.1722
    323  P         22.9040   21.2380    1.3390 P.3    17  DA17        0.2141
    324  OP1       23.9940   22.1830    1.0250 O.2    17  DA17       -0.5172
    325  OP2       23.1040   20.3900    2.5380 O.3    17  DA17       -0.4373
    326  O5'       21.5770   22.1070    1.3900 O.3    17  DA17       -0.3114
    327  C5'       21.2160   22.8330    0.2000 C.3    17  DA17        0.1811
    328  C4'       20.1010   23.7880    0.4840 C.3    17  DA17        0.1746
    329  O4'       18.9130   23.0540    0.8160 O.3    17  DA17       -0.3327
    330  C3'       20.3470   24.7430    1.6330 C.3    17  DA17        0.1558
    331  O3'       19.7320   26.0100    1.4110 O.3    17  DA17       -0.3138
    332  C2'       19.7520   23.9450    2.7910 C.3    17  DA17        0.0865
    333  C1'       18.4970   23.3930    2.1450 C.3    17  DA17        0.2094
    334  N9        18.0790   22.0950    2.7580 N.ar   17  DA17       -0.2714
    335  C8        18.8470   21.0200    3.1330 C.ar   17  DA17        0.1815
    336  N7        18.1140   19.9840    3.5840 N.ar   17  DA17       -0.2193
    337  C5        16.8420   20.4240    3.4880 C.ar   17  DA17        0.1518
    338  C6        15.5770   19.8170    3.7860 C.ar   17  DA17        0.1919
    339  N6        15.4480   18.5370    4.2420 N.pl3  17  DA17       -0.1054
    340  N1        14.4820   20.5570    3.5930 N.ar   17  DA17       -0.2040
    341  C2        14.5970   21.8010    3.1180 C.ar   17  DA17        0.2016
    342  N3        15.7000   22.4720    2.7830 N.ar   17  DA17       -0.2048
    343  C4        16.7910   21.7060    3.0020 C.ar   17  DA17        0.1691
    344  P         19.8030   27.1410    2.5260 P.3    18  DA18        0.2141
    345  OP1       19.7960   28.4780    1.8880 O.2    18  DA18       -0.5172
    346  OP2       20.9530   26.8580    3.4260 O.3    18  DA18       -0.4373
    347  O5'       18.3960   26.9390    3.2410 O.3    18  DA18       -0.3114
    348  C5'       17.2030   27.0280    2.4520 C.3    18  DA18        0.1811
    349  C4'       16.0350   26.9580    3.3880 C.3    18  DA18        0.1746
    350  O4'       15.8560   25.6120    3.8500 O.3    18  DA18       -0.3327
    351  C3'       16.1010   27.8610    4.6150 C.3    18  DA18        0.1558
    352  O3'       14.8900   28.6080    4.7570 O.3    18  DA18       -0.3138
    353  C2'       16.3680   26.8440    5.7240 C.3    18  DA18        0.0865
    354  C1'       15.5610   25.6550    5.2430 C.3    18  DA18        0.2094
    355  N9        16.1040   24.3730    5.7550 N.ar   18  DA18       -0.2714
    356  C8        17.4110   23.9670    5.8300 C.ar   18  DA18        0.1815
    357  N7        17.5390   22.7060    6.2760 N.ar   18  DA18       -0.2193
    358  C5        16.2660   22.3090    6.4800 C.ar   18  DA18        0.1518
    359  C6        15.7150   21.0730    6.9330 C.ar   18  DA18        0.1919
    360  N6        16.4830   19.9940    7.2430 N.pl3  18  DA18       -0.1054
    361  N1        14.3890   20.9940    7.0360 N.ar   18  DA18       -0.2040
    362  C2        13.6360   22.0410    6.7080 C.ar   18  DA18        0.2016
    363  N3        14.0190   23.2340    6.2650 N.ar   18  DA18       -0.2048
    364  C4        15.3670   23.2910    6.1740 C.ar   18  DA18        0.1691
    365  P         14.6040   29.5450    6.0200 P.3    19  DT19        0.2141
    366  OP1       13.7920   30.6960    5.5820 O.2    19  DT19       -0.5172
    367  OP2       15.8520   29.8360    6.7490 O.3    19  DT19       -0.4373
    368  O5'       13.6330   28.6280    6.8850 O.3    19  DT19       -0.3114
    369  C5'       12.3980   28.1710    6.3030 C.3    19  DT19        0.1811
    370  C4'       11.8090   27.2170    7.3020 C.3    19  DT19        0.1746
    371  O4'       12.7670   26.1840    7.5340 O.3    19  DT19       -0.3327
    372  C3'       11.5150   27.8220    8.6690 C.3    19  DT19        0.1558
    373  O3'       10.1030   27.9520    8.8910 O.3    19  DT19       -0.3138
    374  C2'       12.2670   26.9060    9.6300 C.3    19  DT19        0.0866
    375  C1'       12.4260   25.6450    8.7990 C.3    19  DT19        0.2106
    376  N1        13.6090   24.8500    9.2050 N.ar   19  DT19       -0.2559
    377  C2        13.4420   23.5750    9.6560 C.ar   19  DT19        0.3545
    378  O2        12.3110   23.1010    9.8020 O.2    19  DT19       -0.2443
    379  N3        14.5510   22.8250    9.9130 N.ar   19  DT19       -0.1533
    380  C4        15.8150   23.3210    9.7770 C.ar   19  DT19        0.2804
    381  O4        16.7550   22.5700   10.0290 O.2    19  DT19       -0.2654
    382  C5        15.9720   24.6470    9.3620 C.ar   19  DT19        0.0534
    383  C7        17.3450   25.2390    9.2340 C.3    19  DT19        0.0377
    384  C6        14.8440   25.4050    9.0480 C.ar   19  DT19        0.0824
    385  P          9.5130   28.5330   10.2600 P.3    20  DT20        0.2141
    386  OP1        8.1450   29.0070    9.9980 O.2    20  DT20       -0.5172
    387  OP2       10.4550   29.5130   10.8410 O.3    20  DT20       -0.4373
    388  O5'        9.3950   27.2230   11.1530 O.3    20  DT20       -0.3114
    389  C5'        8.5760   26.1480   10.6640 C.3    20  DT20        0.1811
    390  C4'        8.6550   25.0600   11.6780 C.3    20  DT20        0.1746
    391  O4'       10.0030   24.6150   11.7640 O.3    20  DT20       -0.3327
    392  C3'        8.2720   25.4710   13.0870 C.3    20  DT20        0.1558
    393  O3'        7.1990   24.6570   13.5530 O.3    20  DT20       -0.3138
    394  C2'        9.5860   25.3070   13.8600 C.3    20  DT20        0.0866
    395  C1'       10.1900   24.1480   13.0890 C.3    20  DT20        0.2106
    396  N1        11.6600   24.0700   13.2050 N.ar   20  DT20       -0.2559
    397  C2        12.2570   22.8800   13.4860 C.ar   20  DT20        0.3545
    398  O2        11.5830   21.8660   13.6910 O.2    20  DT20       -0.2443
    399  N3        13.6200   22.8290   13.4970 N.ar   20  DT20       -0.1533
    400  C4        14.4020   23.9140   13.2250 C.ar   20  DT20        0.2804
    401  O4        15.6250   23.7640   13.2520 O.2    20  DT20       -0.2654
    402  C5        13.7740   25.1260   12.9330 C.ar   20  DT20        0.0534
    403  C7        14.5630   26.3580   12.6120 C.3    20  DT20        0.0377
    404  C6        12.3850   25.1870   12.9260 C.ar   20  DT20        0.0824
    405  P          6.5940   24.8230   15.0160 P.3    21  DC21        0.2141
    406  OP1        5.1690   24.4240   14.9870 O.2    21  DC21       -0.5172
    407  OP2        6.8700   26.1890   15.5110 O.3    21  DC21       -0.4373
    408  O5'        7.4090   23.7310   15.8390 O.3    21  DC21       -0.3114
    409  C5'        7.3310   22.3520   15.4330 C.3    21  DC21        0.1811
    410  C4'        8.1000   21.5980   16.4610 C.3    21  DC21        0.1746
    411  O4'        9.4780   21.9020   16.2630 O.3    21  DC21       -0.3327
    412  C3'        7.7660   22.0450   17.8790 C.3    21  DC21        0.1558
    413  O3'        7.0360   21.0410   18.6110 O.3    21  DC21       -0.3138
    414  C2'        9.1230   22.4140   18.4690 C.3    21  DC21        0.0866
    415  C1'       10.1070   21.7430   17.5230 C.3    21  DC21        0.2106
    416  N1        11.3280   22.5560   17.3310 N.ar   21  DC21       -0.2556
    417  C2        12.5340   21.9390   17.3290 C.ar   21  DC21        0.3531
    418  O2        12.5600   20.7310   17.5790 O.2    21  DC21       -0.2443
    419  N3        13.6390   22.6390   17.0350 N.ar   21  DC21       -0.1739
    420  C4        13.5600   23.9380   16.7390 C.ar   21  DC21        0.1759
    421  N4        14.6850   24.6280   16.4040 N.pl3  21  DC21       -0.1070
    422  C5        12.3380   24.6090   16.7360 C.ar   21  DC21        0.0566
    423  C6        11.1930   23.8780   17.0350 C.ar   21  DC21        0.0849
    424  P          6.5090   21.3240   20.0990 P.3    22  DG22        0.2141
    425  OP1        5.3870   20.3970   20.3960 O.3    22  DG22       -0.4373
    426  OP2        6.2350   22.7740   20.3060 O.2    22  DG22       -0.5172
    427  O5'        7.7670   20.9240   20.9930 O.3    22  DG22       -0.3114
    428  C5'        8.2160   19.5590   21.0730 C.3    22  DG22        0.1811
    429  C4'        9.4220   19.5570   21.9770 C.3    22  DG22        0.1746
    430  O4'       10.4930   20.2600   21.3190 O.3    22  DG22       -0.3327
    431  C3'        9.2670   20.2670   23.3250 C.3    22  DG22        0.1558
    432  O3'       10.0880   19.6570   24.2930 O.3    22  DG22       -0.3138
    433  C2'        9.7510   21.6700   22.9900 C.3    22  DG22        0.0865
    434  C1'       10.9880   21.2260   22.2560 C.3    22  DG22        0.2094
    435  N9        11.5990   22.3570   21.5430 N.ar   22  DG22       -0.2713
    436  C8        11.0370   23.5450   21.1590 C.ar   22  DG22        0.1816
    437  N7        11.9210   24.3620   20.5660 N.ar   22  DG22       -0.2173
    438  C5        13.0720   23.6530   20.5800 C.ar   22  DG22        0.1748
    439  C6        14.3700   24.0030   20.1020 C.ar   22  DG22        0.3023
    440  O6        14.7470   25.0570   19.5850 O.2    22  DG22       -0.2633
    441  N1        15.2680   22.9830   20.3080 N.ar   22  DG22       -0.1709
    442  C2        15.0230   21.7760   20.8910 C.ar   22  DG22        0.2606
    443  N2        16.0660   20.9140   21.0380 N.pl3  22  DG22       -0.0859
    444  N3        13.8150   21.4520   21.3500 N.ar   22  DG22       -0.1918
    445  C4        12.9020   22.4290   21.1510 C.ar   22  DG22        0.1722
    446  P          9.4770   18.6270   25.3400 P.3    23  DC23        0.2141
    447  OP1        8.7670   17.5340   24.6270 O.2    23  DC23       -0.5172
    448  OP2        8.6700   19.4090   26.3120 O.3    23  DC23       -0.4373
    449  O5'       10.8070   18.0670   26.0340 O.3    23  DC23       -0.3114
    450  C5'       11.6880   17.1700   25.3100 C.3    23  DC23        0.1811
    451  C4'       13.1150   17.5730   25.5930 C.3    23  DC23        0.1746
    452  O4'       13.2840   18.8040   24.8930 O.3    23  DC23       -0.3327
    453  C3'       13.4410   17.8790   27.0590 C.3    23  DC23        0.1558
    454  O3'       14.3410   16.9380   27.6770 O.3    23  DC23       -0.3138
    455  C2'       13.9280   19.3220   27.0250 C.3    23  DC23        0.0866
    456  C1'       14.3120   19.5080   25.5680 C.3    23  DC23        0.2106
    457  N1        14.1440   20.9320   25.1700 N.ar   23  DC23       -0.2556
    458  C2        15.1990   21.5950   24.6300 C.ar   23  DC23        0.3531
    459  O2        16.2570   20.9840   24.5040 O.2    23  DC23       -0.2443
    460  N3        15.0670   22.8770   24.2570 N.ar   23  DC23       -0.1739
    461  C4        13.8980   23.5100   24.4040 C.ar   23  DC23        0.1759
    462  N4        13.7710   24.8130   24.0180 N.pl3  23  DC23       -0.1070
    463  C5        12.7950   22.8660   24.9670 C.ar   23  DC23        0.0566
    464  C6        12.9350   21.5400   25.3590 C.ar   23  DC23        0.0849
    465  P         14.6580   17.0640   29.2470 P.3    24  DG24        0.2141
    466  OP1       14.8630   15.7170   29.8250 O.2    24  DG24       -0.5172
    467  OP2       13.6330   17.9120   29.9200 O.3    24  DG24       -0.4373
    468  O5'       16.0330   17.8800   29.2840 O.3    24  DG24       -0.3114
    469  C5'       17.2430   17.3200   28.7420 C.3    24  DG24        0.1812
    470  C4'       18.2080   18.4640   28.7580 C.3    24  DG24        0.1775
    471  O4'       17.7160   19.4280   27.8290 O.3    24  DG24       -0.3326
    472  C3'       18.2300   19.2360   30.0580 C.3    24  DG24        0.1859
    473  O3'       18.9780   18.5830   31.0840 O.3    24  DG24       -0.2203
    474  C2'       18.8850   20.5190   29.5780 C.3    24  DG24        0.0894
    475  C1'       18.2760   20.6930   28.1880 C.3    24  DG24        0.2095
    476  N9        17.1640   21.6590   28.1390 N.ar   24  DG24       -0.2713
    477  C8        15.8740   21.5360   28.5800 C.ar   24  DG24        0.1816
    478  N7        15.1290   22.6140   28.3080 N.ar   24  DG24       -0.2173
    479  C5        15.9900   23.4360   27.6730 C.ar   24  DG24        0.1748
    480  C6        15.7650   24.7290   27.1170 C.ar   24  DG24        0.3023
    481  O6        14.7190   25.3730   27.0670 O.2    24  DG24       -0.2633
    482  N1        16.9260   25.2570   26.6040 N.ar   24  DG24       -0.1709
    483  C2        18.1570   24.6660   26.5790 C.ar   24  DG24        0.2606
    484  N2        19.2080   25.3860   26.0960 N.pl3  24  DG24       -0.0859
    485  N3        18.3500   23.4380   27.0530 N.ar   24  DG24       -0.1918
    486  C4        17.2310   22.8930   27.5700 C.ar   24  DG24        0.1722
    487  O         19.7360   30.7060   18.6560 O.3    25  HOH25       0.0000
    488  O         10.8790   26.0390   -8.9060 O.3    31  HOH31       0.0000
    489  O         18.3200   24.8160   14.9480 O.3    32  HOH32       0.0000
    490  O          9.8210   13.4420    8.5720 O.3    36  HOH36       0.0000
    491  O          8.9150   15.6020   -3.3880 O.3    38  HOH38       0.0000
    492  O         17.5050   26.3400  -10.5810 O.3    39  HOH39       0.0000
    493  O         28.4960   23.5150   18.3490 O.3    40  HOH40       0.0000
    494  O         11.3460   24.1750    4.9200 O.3    41  HOH41       0.0000
    495  O          9.0980   16.1190    1.2770 O.3    50  HOH50       0.0000
    496  O         16.4880   29.1950   19.8610 O.3    54  HOH54       0.0000
    497  O         22.0780   25.8940   15.3960 O.3    55  HOH55       0.0000
    498  O          7.1330   14.4480    4.6470 O.3    58  HOH58       0.0000
    499  O         14.0950   28.1510   21.6140 O.3    62  HOH62       0.0000
    500  O         27.1640   31.7100   20.3310 O.3    64  HOH64       0.0000
    501  O         15.2950   11.8730   12.2090 O.3    65  HOH65       0.0000
    502  O         18.1800   16.6040    9.9660 O.3    66  HOH66       0.0000
    503  O          6.2160   17.0350    1.6720 O.3    67  HOH67       0.0000
    504  O          7.0550   25.5190   -2.0530 O.3    70  HOH70       0.0000
    505  O         12.4540   11.3540    9.4150 O.3    74  HOH74       0.0000
    506  O         11.4920   29.1030   20.0900 O.3    76  HOH76       0.0000
    507  O         14.2200   29.1890   20.3920 O.3    77  HOH77       0.0000
    508  O          6.1380   19.1490   13.8440 O.3    78  HOH78       0.0000
    509  O         17.3150    9.6380   13.3920 O.3    79  HOH79       0.0000
    510  O         18.9510   25.7570   12.9890 O.3    80  HOH80       0.0000
    511  O         20.4600   18.8610   12.6640 O.3    81  HOH81       0.0000
    512  O          3.5290   19.3380   12.5990 O.3    82  HOH82       0.0000
    513  O         16.2230   12.3510    9.4060 O.3    84  HOH84       0.0000
    514  O         12.9890   29.9010   -9.2820 O.3    85  HOH85       0.0000
    515  O         17.5100   30.5690   18.7020 O.3    86  HOH86       0.0000
    516  O         25.3770   12.8910   19.0110 O.3    87  HOH87       0.0000
    517  O         13.6100   15.7420   18.5930 O.3    88  HOH88       0.0000
    518  O         18.0120   32.5980   15.2620 O.3    89  HOH89       0.0000
    519  O          8.7230   13.2160    6.3590 O.3    92  HOH92       0.0000
    520  O         18.7790   13.8140   11.7040 O.3    97  HOH97       0.0000
    521  O         12.2270   25.1920  -10.2990 O.3    99  HOH99       0.0000
    522  O         12.2920   30.2910   27.1020 O.3   100  HOH100      0.0000
    523  O         20.1700   23.0000   12.9990 O.3   102  HOH102      0.0000
    524  O         14.3540   27.6830   16.3690 O.3    26  HOH26       0.0000
    525  O          9.8640   22.5090    9.1230 O.3    27  HOH27       0.0000
    526  O         19.5260   19.1440    7.4810 O.3    28  HOH28       0.0000
    527  O         25.7540   12.7440   -1.8350 O.3    29  HOH29       0.0000
    528  O          7.4780   20.6040   -9.0000 O.3    30  HOH30       0.0000
    529  O          9.0120   24.5860    7.0090 O.3    33  HOH33       0.0000
    530  O         10.1520   19.9170   13.3810 O.3    34  HOH34       0.0000
    531  O          7.7640   21.3970   11.0750 O.3    35  HOH35       0.0000
    532  O         13.2390   14.4280    2.0490 O.3    37  HOH37       0.0000
    533  O         12.6010   23.0000   29.1670 O.3    42  HOH42       0.0000
    534  O         10.4400   25.5420   24.4430 O.3    43  HOH43       0.0000
    535  O         16.9790   28.6890   16.2840 O.3    44  HOH44       0.0000
    536  O          4.7940   22.9660   13.3680 O.3    45  HOH45       0.0000
    537  O          4.2080   25.5910   10.8280 O.3    46  HOH46       0.0000
    538  O          6.3620   24.3740    9.1880 O.3    47  HOH47       0.0000
    539  O          7.6880   28.4110    7.8830 O.3    48  HOH48       0.0000
    540  O         18.3790   17.0740    4.8090 O.3    49  HOH49       0.0000
    541  O         26.4640   23.8260    1.3960 O.3    51  HOH51       0.0000
    542  O         11.0140   11.3180   -2.9090 O.3    52  HOH52       0.0000
    543  O          9.4760   27.7820   26.4980 O.3    53  HOH53       0.0000
    544  O          5.5220   27.4110    9.0170 O.3    56  HOH56       0.0000
    545  O         18.4560   28.4090    8.8210 O.3    57  HOH57       0.0000
    546  O         22.6100   15.5440    3.8460 O.3    59  HOH59       0.0000
    547  O         24.4070   13.1620    2.2290 O.3    60  HOH60       0.0000
    548  O          7.9880   11.5560   -2.9760 O.3    61  HOH61       0.0000
    549  O         14.2130   27.7220   18.9050 O.3    63  HOH63       0.0000
    550  O         19.1010   11.4330    1.0800 O.3    68  HOH68       0.0000
    551  O         12.6070   10.9670    0.2610 O.3    69  HOH69       0.0000
    552  O         15.0620   26.0240   -0.7660 O.3    71  HOH71       0.0000
    553  O         16.3800    6.4130   -4.7840 O.3    72  HOH72       0.0000
    554  O         14.0590    5.7510   -6.1980 O.3    73  HOH73       0.0000
    555  O          9.6130   17.0390   29.7930 O.3    75  HOH75       0.0000
    556  O         25.2760   15.8900   -1.3010 O.3    83  HOH83       0.0000
    557  O          2.6220   23.0300   10.3320 O.3    90  HOH90       0.0000
    558  O         19.7010   22.5180    9.5110 O.3    91  HOH91       0.0000
    559  O         19.7270   29.4880    6.1550 O.3    93  HOH93       0.0000
    560  O         17.2410   11.5630    4.5110 O.3    94  HOH94       0.0000
    561  O         26.5450   19.4040   -1.0910 O.3    95  HOH95       0.0000
    562  O          9.6970   18.3150   14.8850 O.3    96  HOH96       0.0000
    563  O         14.2920   25.1590    2.2870 O.3    98  HOH98       0.0000
    564  O          9.3960   27.0920   16.9930 O.3   101  HOH101      0.0000
    565  O         19.9870   21.6910    6.8020 O.3   103  HOH103      0.0000
    566  O         18.6920   31.5840    4.5960 O.3   104  HOH104      0.0000
@<TRIPOS>BOND
     1   230   229    1
     2   231   229    1
     3   231   232    1
     4   229   227    1
     5   234   235   ar
     6   234   233   ar
     7   235   236   ar
     8   232   233    1
     9   232   228    1
    10   233   243   ar
    11   236   243   ar
    12   236   237   ar
    13   243   242   ar
    14   247   246    1
    15   247   251    1
    16   238   237    2
    17   237   239   ar
    18   245   246    1
    19   245   244    1
    20   242   240   ar
    21   239   240   ar
    22   240   241    1
    23   257   256    1
    24   246   248    1
    25   256   258   ar
    26   256   255   ar
    27   227   228    1
    28   227   226    1
    29   258   259   ar
    30   255   253   ar
    31   259   252   ar
    32   253   252   ar
    33   253   254    2
    34   252   251    1
    35   251   250    1
    36   225   226    1
    37   225   222    1
    38   224   222    2
    39   248   249    1
    40   248   250    1
    41   222   223    1
    42   222   211    1
    43   249   260    1
    44   212   210    1
    45   212   213    1
    46   205   203    2
    47   264   265    1
    48   264   263    1
    49   220   221   ar
    50   220   218   ar
    51   219   218    1
    52   221   214   ar
    53   210   211    1
    54   210   208    1
    55   218   217   ar
    56   266   265    1
    57   266   270    1
    58   261   260    2
    59   265   267    1
    60   214   215   ar
    61   214   213    1
    62   217   215   ar
    63   215   216    2
    64   260   263    1
    65   260   262    1
    66   213   209    1
    67   206   203    1
    68   206   207    1
    69   279   278    1
    70   278   280   ar
    71   278   277   ar
    72   280   281   ar
    73   203   189    1
    74   203   204    1
    75   277   275   ar
    76   281   274   ar
    77   281   271   ar
    78   275   276    2
    79   275   274   ar
    80   270   271    1
    81   270   269    1
    82   274   273   ar
    83   271   272   ar
    84   208   209    1
    85   208   207    1
    86   273   272   ar
    87   189   188    1
    88   267   268    1
    89   267   269    1
    90   268   282    1
    91   188   190    1
    92   188   186    1
    93   190   191    1
    94   286   287    1
    95   286   285    1
    96   283   282    2
    97   288   287    1
    98   288   292    1
    99   191   192    1
   100   191   187    1
   101   282   285    1
   102   282   284    1
   103   287   289    1
   104   201   199   ar
   105   201   202   ar
   106   200   199    1
   107   192   202   ar
   108   192   193   ar
   109   199   198   ar
   110   202   195   ar
   111   295   294    2
   112   193   194   ar
   113   292   293    1
   114   292   291    1
   115   186   187    1
   116   186   185    1
   117   198   196   ar
   118   195   194   ar
   119   195   196   ar
   120   294   293   ar
   121   294   296   ar
   122   196   197    2
   123   293   300   ar
   124   296   297   ar
   125   289   290    1
   126   289   291    1
   127   300   299   ar
   128   290   301    1
   129   297   299   ar
   130   297   298    1
   131   184   185    1
   132   184   181    1
   133   305   306    1
   134   305   304    1
   135   307   306    1
   136   307   311    1
   137   306   308    1
   138   183   181    2
   139   181   182    1
   140   181   170    1
   141   302   301    2
   142   301   304    1
   143   301   303    1
   144   320   319    1
   145   321   319   ar
   146   321   322   ar
   147   319   318   ar
   148   311   312    1
   149   311   310    1
   150   309   308    1
   151   309   323    1
   152   327   328    1
   153   327   326    1
   154   171   169    1
   155   171   172    1
   156   308   310    1
   157   322   312   ar
   158   322   315   ar
   159   318   316   ar
   160   312   313   ar
   161   328   329    1
   162   328   330    1
   163   170   169    1
   164   175   174    2
   165   329   333    1
   166   174   176   ar
   167   174   173   ar
   168   315   316   ar
   169   315   314   ar
   170   176   177   ar
   171   316   317    2
   172   169   167    1
   173   173   172    1
   174   173   180   ar
   175   324   323    2
   176   313   314   ar
   177   177   178    1
   178   177   179   ar
   179   172   168    1
   180   180   179   ar
   181   323   326    1
   182   323   325    1
   183   331   330    1
   184   331   344    1
   185   330   332    1
   186   345   344    2
   187   333   334    1
   188   333   332    1
   189   168   167    1
   190   348   347    1
   191   348   349    1
   192   167   166    1
   193   164   162    2
   194   344   347    1
   195   344   346    1
   196   165   162    1
   197   165   166    1
   198   334   343   ar
   199   334   335   ar
   200   342   343   ar
   201   342   341   ar
   202   343   337   ar
   203   341   340   ar
   204   335   336   ar
   205   162   163    1
   206   162   150    1
   207   349   350    1
   208   349   351    1
   209   337   336   ar
   210   337   338   ar
   211   340   338   ar
   212   338   339    1
   213   350   354    1
   214   151   149    1
   215   151   152    1
   216   155   154    2
   217   156   154   ar
   218   156   157   ar
   219   154   153   ar
   220   158   157    2
   221   157   159   ar
   222   351   352    1
   223   351   353    1
   224   150   149    1
   225   352   365    1
   226   153   161   ar
   227   153   152    1
   228   159   160    1
   229   159   161   ar
   230   149   147    1
   231   152   148    1
   232   354   353    1
   233   354   355    1
   234   366   365    2
   235   355   356   ar
   236   355   364   ar
   237   356   357   ar
   238   365   367    1
   239   365   368    1
   240   364   363   ar
   241   364   358   ar
   242   363   362   ar
   243   357   358   ar
   244   148   147    1
   245   369   368    1
   246   369   370    1
   247   147   146    1
   248   358   359   ar
   249   362   361   ar
   250   145   146    1
   251   145   142    1
   252   359   361   ar
   253   359   360    1
   254   144   142    2
   255   370   371    1
   256   370   372    1
   257   371   375    1
   258   138   137    2
   259   142   143    1
   260   142   130    1
   261   136   137   ar
   262   136   134   ar
   263   137   139   ar
   264   135   134    2
   265   134   133   ar
   266   131   132    1
   267   131   129    1
   268   139   140    1
   269   139   141   ar
   270   133   141   ar
   271   133   132    1
   272   372   373    1
   273   372   374    1
   274   375   376    1
   275   375   374    1
   276   373   385    1
   277   132   128    1
   278   384   376   ar
   279   384   382   ar
   280   130   129    1
   281   376   377   ar
   282   383   382    1
   283   129   127    1
   284   382   380   ar
   285   377   378    2
   286   377   379   ar
   287   380   379   ar
   288   380   381    2
   289   386   385    2
   290   385   387    1
   291   385   388    1
   292   128   127    1
   293   117   116    1
   294   127   126    1
   295   389   388    1
   296   389   390    1
   297   116   118   ar
   298   116   115   ar
   299   118   119   ar
   300   125   126    1
   301   125   122    1
   302   124   122    2
   303   115   114   ar
   304   115   121   ar
   305   119   120   ar
   306   114   113   ar
   307   121   120   ar
   308   121   112   ar
   309   390   391    1
   310   390   392    1
   311   391   395    1
   312   113   112   ar
   313   122   123    1
   314   122   109    1
   315   110   111    1
   316   110   108    1
   317   112   111    1
   318   403   402    1
   319   111   107    1
   320   404   402   ar
   321   404   396   ar
   322   402   400   ar
   323   392   393    1
   324   392   394    1
   325   395   396    1
   326   395   394    1
   327   109   108    1
   328   108   106    1
   329   396   397   ar
   330   400   401    2
   331   400   399   ar
   332    96    95    1
   333   397   399   ar
   334   397   398    2
   335   393   405    1
   336    95    94   ar
   337    95    97   ar
   338    93    94   ar
   339    93    92   ar
   340   107   106    1
   341   103   101    2
   342    94   100   ar
   343    97    98   ar
   344    92    91   ar
   345   106   105    1
   346   104   101    1
   347   104   105    1
   348   100    91   ar
   349   100    99   ar
   350    98    99   ar
   351    89    90    1
   352    89    87    1
   353    91    90    1
   354    82    80    2
   355   406   405    2
   356   405   407    1
   357   405   408    1
   358   101   102    1
   359   101    88    1
   360   409   408    1
   361   409   410    1
   362    90    86    1
   363    87    88    1
   364    87    85    1
   365    71    70   ar
   366    71    72   ar
   367    83    80    1
   368    83    84    1
   369    70    69   ar
   370    80    81    1
   371    80    66    1
   372   411   410    1
   373   411   415    1
   374    67    65    1
   375    67    68    1
   376    74    73    2
   377   421   420    1
   378    60    58    2
   379   410   412    1
   380    86    85    1
   381    72    73   ar
   382    72    79   ar
   383   422   420   ar
   384   422   423   ar
   385   420   419   ar
   386    73    75   ar
   387    69    79   ar
   388    69    68    1
   389    85    84    1
   390   423   416   ar
   391   419   417   ar
   392    79    78   ar
   393    65    66    1
   394    65    63    1
   395    68    64    1
   396   417   416   ar
   397   417   418    2
   398   416   415    1
   399    75    76   ar
   400   415   414    1
   401    58    61    1
   402    58    59    1
   403    58    47    1
   404    61    62    1
   405    78    76   ar
   406    76    77    1
   407   412   414    1
   408   412   413    1
   409    41    39    2
   410    64    63    1
   411    63    62    1
   412    56    54   ar
   413    56    57   ar
   414   413   424    1
   415    55    54    1
   416    48    46    1
   417    48    49    1
   418    54    53   ar
   419    57    50   ar
   420    46    47    1
   421    46    44    1
   422    40    39    1
   423    39    42    1
   424    39    25    1
   425    42    43    1
   426    53    51   ar
   427    50    51   ar
   428    50    49    1
   429   440   439    2
   430    51    52    2
   431    49    45    1
   432   424   426    2
   433   424   425    1
   434   424   427    1
   435   439   441   ar
   436   439   438   ar
   437    19    17    2
   438    44    43    1
   439    44    45    1
   440   441   442   ar
   441   507   499    1
   442    26    24    1
   443    26    27    1
   444   437   438   ar
   445   437   436   ar
   446   438   445   ar
   447    25    24    1
   448    24    22    1
   449   442   443    1
   450   442   444   ar
   451   427   428    1
   452   428   429    1
   453   445   444   ar
   454   445   435   ar
   455   436   435   ar
   456   430   429    1
   457   430   434    1
   458    29    30   ar
   459    29    28   ar
   460    17    20    1
   461    17    18    1
   462    17     6    1
   463    20    21    1
   464   435   434    1
   465    30    31   ar
   466    27    28    1
   467    27    23    1
   468    28    38   ar
   469   429   431    1
   470    31    38   ar
   471    31    32   ar
   472   434   433    1
   473    38    37   ar
   474    22    21    1
   475    22    23    1
   476    33    32    2
   477    32    34   ar
   478     7     5    1
   479     7     8    1
   480     6     5    1
   481     5     3    1
   482    37    35   ar
   483   433   431    1
   484    34    35   ar
   485    35    36    1
   486   431   432    1
   487     8     9    1
   488     8     4    1
   489   462   461    1
   490     3     2    1
   491     3     4    1
   492    16     9   ar
   493    16    15   ar
   494     2     1    1
   495   460   461   ar
   496   460   458   ar
   497   432   446    1
   498     9    10   ar
   499   461   463   ar
   500    15    13   ar
   501   459   458    2
   502   447   446    2
   503   458   457   ar
   504   452   456    1
   505   452   451    1
   506   463   464   ar
   507    10    11    2
   508    10    12   ar
   509    13    12   ar
   510    13    14    1
   511   457   464   ar
   512   457   456    1
   513   450   451    1
   514   450   449    1
   515   446   449    1
   516   446   448    1
   517   456   455    1
   518   451   453    1
   519   484   483    1
   520   483   482   ar
   521   483   485   ar
   522   482   480   ar
   523   455   453    1
   524   485   486   ar
   525   453   454    1
   526   481   480    2
   527   480   479   ar
   528   486   479   ar
   529   486   476   ar
   530   479   478   ar
   531   454   465    1
   532   471   475    1
   533   471   470    1
   534   476   475    1
   535   476   477   ar
   536   475   474    1
   537   478   477   ar
   538   469   470    1
   539   469   468    1
   540   470   472    1
   541   465   468    1
   542   465   466    2
   543   465   467    1
   544   474   472    1
   545   472   473    1
