@<TRIPOS>MOLECULE
examples/4jrd-A.pdb
 284 271 0 0 0
SMALL
GASTEIGER

@<TRIPOS>ATOM
      1  O5'       24.2950    6.4250  -25.2700 O.3     1  A1         -0.2176
      2  C5'       25.3510    5.5740  -25.7430 C.3     1  A1          0.2141
      3  C4'       26.6530    6.3450  -25.7260 C.3     1  A1          0.1802
      4  O4'       26.4930    7.5540  -26.5230 O.3     1  A1         -0.3306
      5  C3'       27.0460    6.8660  -24.3440 C.3     1  A1          0.1861
      6  O3'       27.7490    5.8150  -23.6750 O.3     1  A1         -0.3112
      7  C2'       27.9830    8.0140  -24.7410 C.3     1  A1          0.2309
      8  O2'       29.2560    7.5570  -25.1530 O.3     1  A1         -0.2156
      9  C1'       27.2400    8.6020  -25.9340 C.3     1  A1          0.2408
     10  N9        26.2850    9.6460  -25.5520 N.ar    1  A1         -0.2693
     11  C8        24.9110    9.6150  -25.5930 C.ar    1  A1          0.1816
     12  N7        24.3510   10.7990  -25.4400 N.ar    1  A1         -0.2193
     13  C5        25.4360   11.6490  -25.2870 C.ar    1  A1          0.1518
     14  C6        25.5220   13.0370  -25.0770 C.ar    1  A1          0.1919
     15  N6        24.4890   13.8840  -25.1010 N.pl3   1  A1         -0.1054
     16  N1        26.7680   13.5530  -24.9450 N.ar    1  A1         -0.2040
     17  C2        27.8400   12.7490  -25.0070 C.ar    1  A1          0.2016
     18  N3        27.8830   11.4240  -25.1980 N.ar    1  A1         -0.2048
     19  C4        26.6250   10.9540  -25.3210 C.ar    1  A1          0.1692
     20  P         28.0920    5.9880  -22.1130 P.3     2  A2          0.2141
     21  OP1       28.5470    4.6560  -21.6660 O.2     2  A2         -0.5172
     22  OP2       26.9720    6.7450  -21.4590 O.3     2  A2         -0.4373
     23  O5'       29.3320    6.9960  -22.1060 O.3     2  A2         -0.3114
     24  C5'       30.6110    6.4710  -22.5160 C.3     2  A2          0.1812
     25  C4'       31.6600    7.5140  -22.2510 C.3     2  A2          0.1773
     26  O4'       31.4040    8.7330  -22.9830 O.3     2  A2         -0.3307
     27  C3'       31.6850    7.9660  -20.7960 C.3     2  A2          0.1860
     28  O3'       32.3390    6.9650  -20.0310 O.3     2  A2         -0.3112
     29  C2'       32.4190    9.2990  -20.9190 C.3     2  A2          0.2309
     30  O2'       33.8170    9.1360  -21.1650 O.3     2  A2         -0.2156
     31  C1'       31.7760    9.8510  -22.1960 C.3     2  A2          0.2408
     32  N9        30.5720   10.6430  -21.9710 N.ar    2  A2         -0.2693
     33  C8        29.2940   10.1500  -21.9210 C.ar    2  A2          0.1816
     34  N7        28.3870   11.0790  -21.7060 N.ar    2  A2         -0.2193
     35  C5        29.1240   12.2570  -21.6990 C.ar    2  A2          0.1518
     36  C6        28.7300   13.6050  -21.6250 C.ar    2  A2          0.1919
     37  N6        27.4380   13.9390  -21.5250 N.pl3   2  A2         -0.1054
     38  N1        29.6840   14.5660  -21.6460 N.ar    2  A2         -0.2040
     39  C2        30.9560   14.1670  -21.7610 C.ar    2  A2          0.2016
     40  N3        31.4420   12.9300  -21.8680 N.ar    2  A2         -0.2048
     41  C4        30.4660   12.0020  -21.8640 C.ar    2  A2          0.1692
     42  P         31.8190    6.6900  -18.5260 P.3     3  A3          0.2141
     43  OP1       32.8870    5.8630  -17.9160 O.3     3  A3         -0.4373
     44  OP2       30.3890    6.3060  -18.5770 O.2     3  A3         -0.5172
     45  O5'       31.9210    8.1500  -17.9330 O.3     3  A3         -0.3114
     46  C5'       30.8860    8.7090  -17.0870 C.3     3  A3          0.1812
     47  C4'       31.1600   10.1940  -17.0760 C.3     3  A3          0.1773
     48  O4'       30.6950   10.7980  -18.3160 O.3     3  A3         -0.3307
     49  C3'       30.3470   10.9330  -16.0220 C.3     3  A3          0.1860
     50  O3'       30.9610   10.7910  -14.7430 O.3     3  A3         -0.3112
     51  C2'       30.4660   12.3520  -16.5630 C.3     3  A3          0.2309
     52  O2'       31.7500   12.9020  -16.3800 O.3     3  A3         -0.2156
     53  C1'       30.1950   12.0990  -18.0570 C.3     3  A3          0.2408
     54  N9        28.7510   12.1010  -18.2980 N.ar    3  A3         -0.2693
     55  C8        27.9370   11.0040  -18.3870 C.ar    3  A3          0.1816
     56  N7        26.6630   11.3010  -18.3850 N.ar    3  A3         -0.2193
     57  C5        26.6310   12.6740  -18.2470 C.ar    3  A3          0.1518
     58  C6        25.5500   13.5660  -18.1230 C.ar    3  A3          0.1919
     59  N6        24.2740   13.2160  -18.0750 N.pl3   3  A3         -0.1054
     60  N1        25.8310   14.8720  -17.9860 N.ar    3  A3         -0.2040
     61  C2        27.1020   15.1820  -17.9760 C.ar    3  A3          0.2016
     62  N3        28.2340   14.4760  -18.0580 N.ar    3  A3         -0.2048
     63  C4        27.9060   13.1750  -18.1620 C.ar    3  A3          0.1692
     64  P         29.9830   10.6860  -13.4820 P.3     4  A4          0.2141
     65  OP1       30.9190   10.5110  -12.3380 O.3     4  A4         -0.4373
     66  OP2       28.8860    9.7210  -13.7340 O.2     4  A4         -0.5172
     67  O5'       29.3160   12.1270  -13.4050 O.3     4  A4         -0.3114
     68  C5'       30.1360   13.2950  -13.2660 C.3     4  A4          0.1812
     69  C4'       29.2980   14.5470  -13.3440 C.3     4  A4          0.1773
     70  O4'       28.5890   14.5790  -14.6140 O.3     4  A4         -0.3307
     71  C3'       28.1720   14.6440  -12.3050 C.3     4  A4          0.1860
     72  O3'       28.7140   15.0750  -11.0620 O.3     4  A4         -0.3112
     73  C2'       27.2830   15.6960  -12.9690 C.3     4  A4          0.2309
     74  O2'       27.8750   16.9770  -12.8790 O.3     4  A4         -0.2156
     75  C1'       27.3280   15.2050  -14.4100 C.3     4  A4          0.2408
     76  N9        26.2800   14.2020  -14.6350 N.ar    4  A4         -0.2693
     77  C8        26.3920   12.8420  -14.7030 C.ar    4  A4          0.1816
     78  N7        25.2420   12.2130  -14.7080 N.ar    4  A4         -0.2193
     79  C5        24.3160   13.2410  -14.6390 C.ar    4  A4          0.1518
     80  C6        22.9120   13.2150  -14.5660 C.ar    4  A4          0.1919
     81  N6        22.1830   12.0970  -14.5780 N.pl3   4  A4         -0.1054
     82  N1        22.2970   14.4080  -14.4300 N.ar    4  A4         -0.2040
     83  C2        23.0310   15.5270  -14.4240 C.ar    4  A4          0.2016
     84  N3        24.3500   15.6740  -14.4970 N.ar    4  A4         -0.2048
     85  C4        24.9380   14.4690  -14.5930 C.ar    4  A4          0.1692
     86  P         28.0570   14.5240   -9.6960 P.3     5  A5          0.2141
     87  OP1       28.9750   15.0280   -8.6530 O.3     5  A5         -0.4373
     88  OP2       27.7910   13.0650   -9.8160 O.2     5  A5         -0.5172
     89  O5'       26.6480   15.2430   -9.6470 O.3     5  A5         -0.3114
     90  C5'       26.5720   16.6890   -9.6270 C.3     5  A5          0.1812
     91  C4'       25.1670   17.1560   -9.8870 C.3     5  A5          0.1773
     92  O4'       24.6310   16.5900  -11.1280 O.3     5  A5         -0.3307
     93  C3'       24.1570   16.7090   -8.8370 C.3     5  A5          0.1860
     94  O3'       24.2430   17.5600   -7.6970 O.3     5  A5         -0.3112
     95  C2'       22.8470   16.8710   -9.6020 C.3     5  A5          0.2309
     96  O2'       22.5360   18.2430   -9.7310 O.3     5  A5         -0.2156
     97  C1'       23.2570   16.3060  -10.9750 C.3     5  A5          0.2408
     98  N9        23.0810   14.8540  -11.0160 N.ar    5  A5         -0.2693
     99  C8        24.0560   13.9030  -11.0220 C.ar    5  A5          0.1816
    100  N7        23.5950   12.6830  -11.0450 N.ar    5  A5         -0.2193
    101  C5        22.2120   12.8370  -11.0450 C.ar    5  A5          0.1518
    102  C6        21.1600   11.9050  -11.0540 C.ar    5  A5          0.1919
    103  N6        21.3420   10.5880  -11.0560 N.pl3   5  A5         -0.1054
    104  N1        19.9000   12.3990  -11.0230 N.ar    5  A5         -0.2040
    105  C2        19.7190   13.7280  -11.0350 C.ar    5  A5          0.2016
    106  N3        20.6300   14.6910  -11.0470 N.ar    5  A5         -0.2048
    107  C4        21.8770   14.1790  -11.0330 C.ar    5  A5          0.1692
    108  P         23.9960   16.9210   -6.2350 P.3     6  A6          0.2141
    109  OP1       24.1670   18.0460   -5.2800 O.3     6  A6         -0.4373
    110  OP2       24.7800   15.6860   -6.0510 O.2     6  A6         -0.5172
    111  O5'       22.4740   16.4660   -6.3040 O.3     6  A6         -0.3114
    112  C5'       21.4310   17.4500   -6.3930 C.3     6  A6          0.1812
    113  C4'       20.1190   16.7460   -6.5780 C.3     6  A6          0.1773
    114  O4'       20.1170   15.9430   -7.7940 O.3     6  A6         -0.3307
    115  C3'       19.7740   15.7330   -5.4950 C.3     6  A6          0.1860
    116  O3'       19.2890   16.3530   -4.3110 O.3     6  A6         -0.3112
    117  C2'       18.7190   14.8800   -6.1910 C.3     6  A6          0.2309
    118  O2'       17.5050   15.6000   -6.3040 O.3     6  A6         -0.2156
    119  C1'       19.3620   14.7640   -7.5890 C.3     6  A6          0.2408
    120  N9        20.2530   13.6180   -7.6330 N.ar    6  A6         -0.2693
    121  C8        21.6230   13.6130   -7.5340 C.ar    6  A6          0.1816
    122  N7        22.1260   12.4090   -7.4500 N.ar    6  A6         -0.2193
    123  C5        21.0220   11.5660   -7.5610 C.ar    6  A6          0.1518
    124  C6        20.9050   10.1670   -7.5060 C.ar    6  A6          0.1919
    125  N6        21.9550    9.3540   -7.4030 N.pl3   6  A6         -0.1054
    126  N1        19.6670    9.6490   -7.5700 N.ar    6  A6         -0.2040
    127  C2        18.6250   10.4860   -7.6840 C.ar    6  A6          0.2016
    128  N3        18.6130   11.8110   -7.7310 N.ar    6  A6         -0.2048
    129  C4        19.8620   12.3040   -7.6520 C.ar    6  A6          0.1692
    130  P         19.7290   15.7340   -2.8820 P.3     7  A7          0.2141
    131  OP1       19.1520   16.6440   -1.8640 O.3     7  A7         -0.4373
    132  OP2       21.1810   15.4400   -2.8780 O.2     7  A7         -0.5172
    133  O5'       18.9780   14.3160   -2.8690 O.3     7  A7         -0.3114
    134  C5'       17.5380   14.3090   -2.9530 C.3     7  A7          0.1812
    135  C4'       17.0180   12.9120   -3.1690 C.3     7  A7          0.1773
    136  O4'       17.6060   12.3480   -4.3700 O.3     7  A7         -0.3307
    137  C3'       17.4370   11.9230   -2.0870 C.3     7  A7          0.1860
    138  O3'       16.6010   12.0240   -0.9460 O.3     7  A7         -0.3112
    139  C2'       17.2640   10.5920   -2.8290 C.3     7  A7          0.2309
    140  O2'       15.9010   10.2650   -2.9770 O.3     7  A7         -0.2156
    141  C1'       17.8710   10.9720   -4.1880 C.3     7  A7          0.2408
    142  N9        19.3270   10.7900   -4.1850 N.ar    7  A7         -0.2693
    143  C8        20.3200   11.7200   -4.0680 C.ar    7  A7          0.1816
    144  N7        21.5200   11.1790   -3.8970 N.ar    7  A7         -0.2193
    145  C5        21.2660    9.8200   -3.9190 C.ar    7  A7          0.1518
    146  C6        22.1140    8.7120   -3.7310 C.ar    7  A7          0.1919
    147  N6        23.4160    8.8290   -3.5180 N.pl3   7  A7         -0.1054
    148  N1        21.5380    7.4940   -3.7100 N.ar    7  A7         -0.2040
    149  C2        20.2130    7.3980   -3.9060 C.ar    7  A7          0.2016
    150  N3        19.3220    8.3580   -4.0900 N.ar    7  A7         -0.2048
    151  C4        19.9270    9.5520   -4.0710 C.ar    7  A7          0.1692
    152  P         17.2490   11.6950    0.5030 P.3     8  A8          0.2141
    153  OP1       16.1430   11.9190    1.4720 O.3     8  A8         -0.4373
    154  OP2       18.5080   12.4840    0.6760 O.2     8  A8         -0.5172
    155  O5'       17.6260   10.1480    0.4060 O.3     8  A8         -0.3114
    156  C5'       16.5600    9.1780    0.2450 C.3     8  A8          0.1812
    157  C4'       17.1450    7.7960    0.1510 C.3     8  A8          0.1773
    158  O4'       18.1040    7.7050   -0.9370 O.3     8  A8         -0.3307
    159  C3'       17.9860    7.3660    1.3640 C.3     8  A8          0.1860
    160  O3'       17.1100    6.9740    2.4140 O.3     8  A8         -0.3112
    161  C2'       18.7870    6.2100    0.7690 C.3     8  A8          0.2309
    162  O2'       17.9560    5.0880    0.5750 O.3     8  A8         -0.2156
    163  C1'       19.1680    6.8170   -0.5960 C.3     8  A8          0.2408
    164  N9        20.3740    7.6460   -0.4650 N.ar    8  A8         -0.2693
    165  C8        20.4930    9.0110   -0.4410 C.ar    8  A8          0.1816
    166  N7        21.6940    9.4710   -0.1920 N.ar    8  A8         -0.2193
    167  C5        22.4420    8.3020   -0.0310 C.ar    8  A8          0.1518
    168  C6        23.7940    8.0970    0.2960 C.ar    8  A8          0.1919
    169  N6        24.6520    9.1000    0.4890 N.pl3   8  A8         -0.1054
    170  N1        24.2030    6.8190    0.4020 N.ar    8  A8         -0.2040
    171  C2        23.3320    5.8280    0.1860 C.ar    8  A8          0.2016
    172  N3        22.0380    5.9000   -0.1240 N.ar    8  A8         -0.2048
    173  C4        21.6470    7.1850   -0.2240 C.ar    8  A8          0.1692
    174  P         17.5860    7.2830    3.9200 P.3     9  A9          0.2141
    175  OP1       16.4820    6.8290    4.8030 O.3     9  A9         -0.4373
    176  OP2       18.0540    8.6870    4.0160 O.2     9  A9         -0.5172
    177  O5'       18.8780    6.3820    4.1080 O.3     9  A9         -0.3114
    178  C5'       18.7410    4.9370    4.0490 C.3     9  A9          0.1812
    179  C4'       20.1140    4.3120    4.1780 C.3     9  A9          0.1773
    180  O4'       20.9570    4.7760    3.0830 O.3     9  A9         -0.3307
    181  C3'       20.9050    4.7200    5.4030 C.3     9  A9          0.1860
    182  O3'       20.4460    3.9800    6.5440 O.3     9  A9         -0.3112
    183  C2'       22.3110    4.3240    4.9640 C.3     9  A9          0.2309
    184  O2'       22.4710    2.9200    4.9200 O.3     9  A9         -0.2156
    185  C1'       22.3080    4.8640    3.5220 C.3     9  A9          0.2408
    186  N9        22.7060    6.2780    3.5170 N.ar    9  A9         -0.2693
    187  C8        21.9040    7.3870    3.4180 C.ar    9  A9          0.1816
    188  N7        22.5380    8.5200    3.6410 N.ar    9  A9         -0.2193
    189  C5        23.8350    8.1210    3.9040 C.ar    9  A9          0.1518
    190  C6        24.9830    8.8480    4.2640 C.ar    9  A9          0.1919
    191  N6        24.9800   10.1740    4.3790 N.pl3   9  A9         -0.1054
    192  N1        26.1200    8.1580    4.5030 N.ar    9  A9         -0.2040
    193  C2        26.0990    6.8120    4.3570 C.ar    9  A9          0.2016
    194  N3        25.0790    6.0240    4.0260 N.ar    9  A9         -0.2048
    195  C4        23.9580    6.7480    3.8330 C.ar    9  A9          0.1692
    196  P         20.5200    4.7430    7.9680 P.3    10  A10         0.2141
    197  OP1       20.0670    3.7410    8.9820 O.3    10  A10        -0.4373
    198  OP2       19.8780    6.0710    7.8750 O.2    10  A10        -0.5172
    199  O5'       22.0920    4.9950    8.1380 O.3    10  A10        -0.3114
    200  C5'       22.9680    3.8430    8.1760 C.3    10  A10         0.1812
    201  C4'       24.3840    4.3060    8.3700 C.3    10  A10         0.1773
    202  O4'       24.7960    5.1910    7.2980 O.3    10  A10        -0.3307
    203  C3'       24.6360    5.1600    9.6140 C.3    10  A10         0.1860
    204  O3'       24.7330    4.3460   10.7610 O.3    10  A10        -0.3112
    205  C2'       25.9440    5.8500    9.2690 C.3    10  A10         0.2309
    206  O2'       27.0080    4.9060    9.3310 O.3    10  A10        -0.2156
    207  C1'       25.6580    6.1880    7.7920 C.3    10  A10         0.2408
    208  N9        24.9900    7.4880    7.6880 N.ar   10  A10        -0.2693
    209  C8        23.6640    7.7560    7.4840 C.ar   10  A10         0.1816
    210  N7        23.3700    9.0320    7.6000 N.ar   10  A10        -0.2193
    211  C5        24.5820    9.6420    7.8960 C.ar   10  A10         0.1518
    212  C6        24.9320   10.9620    8.2030 C.ar   10  A10         0.1919
    213  N6        24.0580   11.9670    8.2180 N.pl3  10  A10        -0.1054
    214  N1        26.2130   11.2350    8.5200 N.ar   10  A10        -0.2040
    215  C2        27.0800   10.2150    8.5140 C.ar   10  A10         0.2016
    216  N3        26.8700    8.9240    8.2560 N.ar   10  A10        -0.2048
    217  C4        25.5830    8.7030    7.9600 C.ar   10  A10         0.1692
    218  P         24.2070    4.9190   12.1610 P.3    11  A11         0.2141
    219  OP1       24.3740    3.8300   13.1590 O.2    11  A11        -0.5172
    220  OP2       22.9100    5.6130   11.9760 O.3    11  A11        -0.4373
    221  O5'       25.2690    6.0690   12.4750 O.3    11  A11        -0.3114
    222  C5'       26.6670    5.7220   12.5610 C.3    11  A11         0.1813
    223  C4'       27.4790    6.9860   12.6890 C.3    11  A11         0.1801
    224  O4'       27.2380    7.8710   11.5610 O.3    11  A11        -0.3306
    225  C3'       27.1560    7.8610   13.8930 C.3    11  A11         0.2161
    226  O3'       27.7640    7.3860   15.0830 O.3    11  A11        -0.2175
    227  C2'       27.7050    9.2060   13.4400 C.3    11  A11         0.2337
    228  O2'       29.1260    9.2110   13.5220 O.3    11  A11        -0.2155
    229  C1'       27.2730    9.2280   11.9740 C.3    11  A11         0.2409
    230  N9        25.9420    9.8050   11.8040 N.ar   11  A11        -0.2693
    231  C8        24.7430    9.1410   11.6480 C.ar   11  A11         0.1816
    232  N7        23.7040    9.9330   11.6160 N.ar   11  A11        -0.2193
    233  C5        24.2420   11.2010   11.7890 C.ar   11  A11         0.1518
    234  C6        23.6420   12.4660   11.8950 C.ar   11  A11         0.1919
    235  N6        22.3180   12.6550   11.8680 N.pl3  11  A11        -0.1054
    236  N1        24.4630   13.5340   12.0590 N.ar   11  A11        -0.2040
    237  C2        25.7840   13.3190   12.1130 C.ar   11  A11         0.2016
    238  N3        26.4500   12.1770   12.0350 N.ar   11  A11        -0.2048
    239  C4        25.6170   11.1360   11.9010 C.ar   11  A11         0.1692
    240  N         28.0340    7.7400  -18.9880 N.3   101  NH4101      0.0000
    241  N         28.7720    7.2270  -14.7580 N.3   102  NH4102      0.0000
    242  N         23.8090   17.1490   -2.6760 N.3   103  NH4103      0.0000
    243  N         17.3550    7.0170    7.5060 N.3   104  NH4104      0.0000
    244  N         20.2740    4.6790   11.5220 N.3   105  NH4105      0.0000
    245  N         25.6520    4.3480   15.8920 N.3   106  NH4106      0.0000
    246  N         19.0890   15.2260    0.6560 N.3   107  NH4107      0.0000
    247  N         16.8130   11.1090    4.0730 N.3   108  NH4108      0.0000
    248  N         29.5530   10.8790   -9.9300 N.3   109  NH4109      0.0000
    249  N         22.8390    5.0550   -3.3290 N.3   110  NH4110      0.0000
    250  N         27.3150   13.8420    9.0550 N.3   111  NH4111      0.0000
    251  O         35.3940    5.1410  -18.5400 O.3   201  HOH201      0.0000
    252  O         30.6080    8.4170   11.3790 O.3   202  HOH202      0.0000
    253  O         28.9170    6.9600    9.1160 O.3   203  HOH203      0.0000
    254  O         20.5190    1.0470    8.6820 O.3   204  HOH204      0.0000
    255  O         23.6510   20.6630   -5.8500 O.3   205  HOH205      0.0000
    256  O         19.9870   18.9440  -10.0770 O.3   206  HOH206      0.0000
    257  O         27.3690   16.1820  -24.7410 O.3   207  HOH207      0.0000
    258  O         26.4030    9.0880   16.6540 O.3   208  HOH208      0.0000
    259  O         29.7440    4.0220  -19.3310 O.3   209  HOH209      0.0000
    260  O         25.6820   18.3040  -13.8390 O.3   210  HOH210      0.0000
    261  O         16.1250   13.3330   -7.4620 O.3   211  HOH211      0.0000
    262  O         16.7390   18.0680   -5.2260 O.3   212  HOH212      0.0000
    263  O         17.0370   18.1970   -2.5670 O.3   213  HOH213      0.0000
    264  O         21.1870   18.2370    2.0890 O.3   214  HOH214      0.0000
    265  O         20.6810   18.6650   -0.6690 O.3   215  HOH215      0.0000
    266  O         18.9460    2.5260    0.7390 O.3   216  HOH216      0.0000
    267  O         13.8900    7.8880    4.8480 O.3   217  HOH217      0.0000
    268  O         33.6100   10.6690  -12.5190 O.3   218  HOH218      0.0000
    269  O         25.1520    3.0980    4.2850 O.3   219  HOH219      0.0000
    270  O         30.4960   10.0980  -25.5970 O.3   220  HOH220      0.0000
    271  O         15.9620   14.5110    2.7620 O.3   221  HOH221      0.0000
    272  O         14.5010   14.8940   -5.0790 O.3   222  HOH222      0.0000
    273  O         31.5870   14.1360   -8.1700 O.3   223  HOH223      0.0000
    274  O         20.3140   20.4490   -7.7990 O.3   224  HOH224      0.0000
    275  O         16.0040   16.0040    0.0000 O.3   225  HOH225      0.0000
    276  O         29.6000   10.8960   15.3910 O.3   226  HOH226      0.0000
    277  O         22.4670    2.7440   -1.5570 O.3   227  HOH227      0.0000
    278  O         20.9840   20.3450   -3.9820 O.3   228  HOH228      0.0000
    279  O         29.7350   13.3450   11.7550 O.3   229  HOH229      0.0000
    280  O         14.4020   11.8890   -5.2320 O.3   230  HOH230      0.0000
    281  O         36.0520    7.8910  -19.1490 O.3   231  HOH231      0.0000
    282  O         33.7920   12.5540  -14.4940 O.3   232  HOH232      0.0000
    283  O         14.4820   11.3220    5.7570 O.3   233  HOH233      0.0000
    284  O         31.6670   10.4610   -7.8320 O.3   234  HOH234      0.0000
@<TRIPOS>BOND
     1     1     2    1
     2     2     3    1
     3     3     4    1
     4     3     5    1
     5     4     9    1
     6     5     7    1
     7     5     6    1
     8     6    20    1
     9     7     8    1
    10     7     9    1
    11     9    10    1
    12    10    11   ar
    13    10    19   ar
    14    11    12   ar
    15    12    13   ar
    16    13    14   ar
    17    13    19   ar
    18    14    15    1
    19    14    16   ar
    20    16    17   ar
    21    17    18   ar
    22    18    19   ar
    23   218   219    2
    24   218   220    1
    25   218   221    1
    26   221   222    1
    27   222   223    1
    28   223   224    1
    29   223   225    1
    30   224   229    1
    31   225   227    1
    32   225   226    1
    33   227   228    1
    34   227   229    1
    35   229   230    1
    36   230   231   ar
    37   230   239   ar
    38   231   232   ar
    39   232   233   ar
    40   233   234   ar
    41   233   239   ar
    42   234   235    1
    43   234   236   ar
    44   236   237   ar
    45   237   238   ar
    46   238   239   ar
    47    26    25    1
    48    26    31    1
    49    24    25    1
    50    24    23    1
    51    25    27    1
    52    31    32    1
    53    31    29    1
    54    20    23    1
    55    20    21    2
    56    20    22    1
    57    32    33   ar
    58    32    41   ar
    59    33    34   ar
    60    40    41   ar
    61    40    39   ar
    62    41    35   ar
    63    39    38   ar
    64    34    35   ar
    65    35    36   ar
    66    38    36   ar
    67    36    37    1
    68    30    29    1
    69    29    27    1
    70    27    28    1
    71    28    42    1
    72    44    42    2
    73    42    45    1
    74    42    43    1
    75    55    56   ar
    76    55    54   ar
    77    56    57   ar
    78    48    53    1
    79    48    47    1
    80    54    63   ar
    81    54    53    1
    82    57    63   ar
    83    57    58   ar
    84    63    62   ar
    85    58    59    1
    86    58    60   ar
    87    62    61   ar
    88    53    51    1
    89    60    61   ar
    90    45    46    1
    91    46    47    1
    92    47    49    1
    93    51    52    1
    94    51    49    1
    95    49    50    1
    96    50    64    1
    97    78    77   ar
    98    78    79   ar
    99    77    76   ar
   100    79    85   ar
   101    79    80   ar
   102    76    85   ar
   103    76    75    1
   104    70    75    1
   105    70    69    1
   106    85    84   ar
   107    81    80    1
   108    80    82   ar
   109    84    83   ar
   110    82    83   ar
   111    75    73    1
   112    66    64    2
   113    64    67    1
   114    64    65    1
   115    67    68    1
   116    69    68    1
   117    69    71    1
   118    73    74    1
   119    73    71    1
   120    71    72    1
   121    92    97    1
   122    92    91    1
   123    72    86    1
   124   103   102    1
   125   102   101   ar
   126   102   104   ar
   127   106   105   ar
   128   106   107   ar
   129   101   100   ar
   130   101   107   ar
   131   100    99   ar
   132   105   104   ar
   133   107    98   ar
   134    99    98   ar
   135    98    97    1
   136    97    95    1
   137    91    90    1
   138    91    93    1
   139    88    86    2
   140    96    95    1
   141    86    89    1
   142    86    87    1
   143    89    90    1
   144    95    93    1
   145    93    94    1
   146   114   119    1
   147   114   113    1
   148   128   127   ar
   149   128   129   ar
   150    94   108    1
   151   127   126   ar
   152   129   120   ar
   153   129   123   ar
   154   120   119    1
   155   120   121   ar
   156   119   117    1
   157   126   124   ar
   158   123   124   ar
   159   123   122   ar
   160   121   122   ar
   161   124   125    1
   162   113   112    1
   163   113   115    1
   164   112   111    1
   165   111   108    1
   166   118   117    1
   167   108   110    2
   168   108   109    1
   169   117   115    1
   170   115   116    1
   171   136   141    1
   172   136   135    1
   173   116   130    1
   174   141   142    1
   175   141   139    1
   176   142   151   ar
   177   142   143   ar
   178   150   151   ar
   179   150   149   ar
   180   151   145   ar
   181   143   144   ar
   182   145   144   ar
   183   145   146   ar
   184   149   148   ar
   185   146   148   ar
   186   146   147    1
   187   135   134    1
   188   135   137    1
   189   140   139    1
   190   134   133    1
   191   130   132    2
   192   130   133    1
   193   130   131    1
   194   139   137    1
   195   137   138    1
   196   138   152    1
   197   158   163    1
   198   158   157    1
   199   163   164    1
   200   163   161    1
   201   164   165   ar
   202   164   173   ar
   203   165   166   ar
   204   173   172   ar
   205   173   167   ar
   206   166   167   ar
   207   172   171   ar
   208   167   168   ar
   209   157   156    1
   210   157   159    1
   211   171   170   ar
   212   156   155    1
   213   168   170   ar
   214   168   169    1
   215   155   152    1
   216   152   154    2
   217   152   153    1
   218   162   161    1
   219   161   159    1
   220   159   160    1
   221   160   174    1
   222   180   185    1
   223   180   179    1
   224   187   186   ar
   225   187   188   ar
   226   186   185    1
   227   186   195   ar
   228   185   183    1
   229   188   189   ar
   230   195   189   ar
   231   195   194   ar
   232   189   190   ar
   233   174   176    2
   234   174   177    1
   235   174   175    1
   236   194   193   ar
   237   178   177    1
   238   178   179    1
   239   179   181    1
   240   190   191    1
   241   190   192   ar
   242   193   192   ar
   243   184   183    1
   244   183   181    1
   245   181   182    1
   246   182   196    1
   247   202   207    1
   248   202   201    1
   249   209   210   ar
   250   209   208   ar
   251   210   211   ar
   252   208   207    1
   253   208   217   ar
   254   207   205    1
   255   198   196    2
   256   211   217   ar
   257   211   212   ar
   258   217   216   ar
   259   196   199    1
   260   196   197    1
   261   199   200    1
   262   200   201    1
   263   212   213    1
   264   212   214   ar
   265   216   215   ar
   266   201   203    1
   267   215   214   ar
   268   205   206    1
   269   205   203    1
   270   203   204    1
   271   204   218    1
